&NAMDPARA
  BMIN     = 404     ! bottom band index, starting from 1
  BMAX     = 408     ! top band index
  NBANDS   = 540     ! number of bands

  NSW      = 2000    ! number of ionic steps
  POTIM    = 1       ! MD time step
  TEMP     = 300     ! temperature in Kelvin

  NSAMPLE  = 100     ! number of samples
  NAMDTIME = 1000    ! time for NAMD run
  NELM     = 1000    ! electron time step
  NTRAJ    = 5000    ! SH trajectories
  LHOLE    = .TRUE. ! hole/electron SH

  RUNDIR   = "../../run/"
  LCPEXT   = .TRUE.
/                    ! **DO NOT FORGET THE SLASH HERE!**
